Version 4
SHEET 1 1428 680
WIRE -448 -240 -640 -240
WIRE -352 -240 -448 -240
WIRE 64 -240 -128 -240
WIRE 160 -240 64 -240
WIRE 1168 -240 976 -240
WIRE -448 -192 -448 -240
WIRE -352 -192 -352 -240
WIRE 64 -192 64 -240
WIRE 160 -192 160 -240
WIRE 976 -160 976 -240
WIRE 1168 -144 1168 -240
WIRE -640 -128 -640 -240
WIRE -128 -128 -128 -240
WIRE 976 64 976 -80
WIRE 1040 64 976 64
WIRE 1216 64 1120 64
WIRE -448 80 -448 -112
WIRE -352 80 -352 -112
WIRE 64 96 64 -112
WIRE 160 96 160 -112
WIRE 704 144 704 0
WIRE 976 176 976 64
WIRE 1040 176 976 176
WIRE 1216 192 1216 64
WIRE 1216 192 1104 192
WIRE -640 208 -640 -48
WIRE -448 208 -448 160
WIRE -448 208 -640 208
WIRE -352 208 -352 160
WIRE -352 208 -448 208
WIRE -128 208 -128 -48
WIRE 64 208 64 160
WIRE 64 208 -128 208
WIRE 160 208 160 160
WIRE 160 208 64 208
WIRE 1040 208 784 208
WIRE 704 240 704 224
WIRE 784 240 784 208
WIRE 784 240 704 240
WIRE -448 256 -448 208
WIRE 64 256 64 208
WIRE 704 272 704 240
WIRE 704 400 704 352
FLAG 64 256 0
FLAG 352 -224 3.3
FLAG 352 -144 0
FLAG -448 256 0
FLAG 1072 160 3.3
FLAG 1072 224 0
FLAG 1216 192 Vs
FLAG 704 400 0
FLAG 1168 -144 0
FLAG 704 0 0
SYMBOL LED 48 96 R0
SYMATTR InstName R
SYMBOL LED 144 96 R0
SYMATTR InstName iR
SYMBOL res 48 -208 R0
SYMATTR InstName R1
SYMATTR Value 100
SYMBOL res 144 -208 R0
SYMATTR InstName R2
SYMATTR Value 330
SYMBOL voltage -128 -144 R0
SYMATTR InstName V1
SYMATTR Value 3.3
SYMBOL voltage 352 -240 R0
WINDOW 123 0 0 Left 0
WINDOW 39 0 0 Left 0
SYMATTR InstName V2
SYMATTR Value 3.3
SYMBOL res -464 -208 R0
SYMATTR InstName R6
SYMATTR Value 100
SYMBOL res -368 -208 R0
SYMATTR InstName R7
SYMATTR Value 60
SYMBOL voltage -640 -144 R0
SYMATTR InstName V3
SYMATTR Value 3.3
SYMBOL voltage -448 64 R0
SYMATTR InstName V4
SYMATTR Value 1.3
SYMBOL voltage -352 64 R0
SYMATTR InstName V5
SYMATTR Value 2.1
SYMBOL current 704 144 R0
WINDOW 123 0 0 Left 0
WINDOW 39 0 0 Left 0
SYMATTR InstName I2
SYMATTR Value SINE(750n 750n 1)
SYMBOL res 1136 48 R90
WINDOW 0 0 56 VBottom 2
WINDOW 3 32 56 VTop 2
SYMATTR InstName R4
SYMATTR Value 1k
SYMBOL OpAmps\\UniversalOpamp2 1072 192 R0
SYMATTR InstName U2
SYMBOL res 688 256 R0
SYMATTR InstName R5
SYMATTR Value 1k
SYMBOL res 960 -176 R0
SYMATTR InstName R3
SYMATTR Value 1k
TEXT -162 296 Left 2 !.tran 3
TEXT -1424 160 Left 2 ;On choisis les Résistance pour avoir 20mA dans chaque diode
