Version 4
SHEET 1 896 680
WIRE -256 -192 -256 -208
WIRE 176 -48 64 -48
WIRE 400 -48 272 -48
WIRE 544 -48 400 -48
WIRE 704 -48 624 -48
WIRE 816 -48 704 -48
WIRE 400 48 400 -48
WIRE 704 48 704 -48
WIRE 64 64 64 -48
WIRE 816 80 816 -48
WIRE 64 176 64 144
WIRE 400 176 400 112
WIRE 400 176 64 176
WIRE 704 176 704 112
WIRE 704 176 400 176
WIRE 816 176 816 160
WIRE 816 176 704 176
WIRE 64 192 64 176
FLAG 64 192 0
FLAG -16 -192 cmd
FLAG 256 0 cmd
FLAG -80 -208 sortie
FLAG 816 -48 sortie
FLAG 64 -48 Vcc
FLAG -48 -224 Vcc
FLAG -48 -160 0
FLAG -256 -112 0
FLAG -256 -208 comp
FLAG -80 -176 comp
SYMBOL voltage 64 48 R0
SYMATTR InstName V1
SYMATTR Value 36
SYMBOL nmos 176 0 R270
SYMATTR InstName M1
SYMATTR Value BSP89
SYMBOL diode 416 112 R180
WINDOW 0 24 64 Left 2
WINDOW 3 24 0 Left 2
SYMATTR InstName D1
SYMATTR Value 1N4148
SYMBOL ind 528 -32 R270
WINDOW 0 32 56 VTop 2
WINDOW 3 5 56 VBottom 2
SYMATTR InstName L1
SYMATTR Value 10
SYMBOL cap 688 48 R0
SYMATTR InstName C1
SYMATTR Value 1µ
SYMBOL voltage -256 -208 R0
WINDOW 123 0 0 Left 0
WINDOW 39 0 0 Left 0
SYMATTR InstName V2
SYMATTR Value 10
SYMBOL OpAmps\\OP1177 -48 -256 R0
SYMATTR InstName U2
SYMBOL current 816 80 R0
WINDOW 123 0 0 Left 0
WINDOW 39 0 0 Left 0
SYMATTR InstName I1
SYMATTR Value 2
TEXT -288 216 Left 2 !.tran 50m
